data/Master_nando_neutral/Master.dss
Clear

Set DefaultBaseFrequency=50

New Circuit.LV28 basekv=22 pu=1 phases=4

!-----Elements--------
Redirect LoadShapes.txt
!-- Redirect Vsource.txt
Redirect LineCodes.txt
Redirect Transformer.txt
Redirect Lines.txt
Redirect Customers.txt
!-- Redirect PVSystems.txt
!-- Redirect PVInverters.txt
!-- Redirect Monitors.txt

!-- Redirect PVInverters_var.txt

!Fictitious line created to simulate a voltage drop/rise that would happen on the original HV-LV network when using OE export/import
New line.line bus1=sourcebus.1.2.3.4 bus2=linebus2.1.2.3.4 phases=4 length=2 units=km r1=2 x1=20 c1=400 r0=2 x0=20 c0=400 Normamps=2000 enabled=true


!-- changed phases =3 to 4

!-----Settings--------
Set maxiterations=1000
Set Maxcontroliter=1000

!-----Load Flow------
calcvoltagebases
calcv